<?xml version="1.0" encoding="UTF-8"?>

<!-- generated on 2023-07-25 13:45:00 by Eclipse SUMO netedit Version 1.18.0
-->

<additional xmlns:xsi="http://www.w3.org/2001/XMLSchema-instance" xsi:noNamespaceSchemaLocation="http://sumo.dlr.de/xsd/additional_file.xsd">
    <!-- Detectors -->
    <inductionLoop id="hofjallee_0" lane="206170868#1_0" pos="197.93" period="900.00" file="../../loop-output.xml"/>
    <inductionLoop id="hofjallee_1" lane="206170868#1_1" pos="197.93" period="900.00" file="../../loop-output.xml"/>
    <inductionLoop id="hofjallee_2" lane="206170868#1_2" pos="197.93" period="900.00" file="../../loop-output.xml"/>
    <inductionLoop id="bleibtrstr_0" lane="-68339346#0_0" pos="89.00" period="900.00" file="../../loop-output.xml"/>
    <inductionLoop id="gruwstr_0" lane="152952349#6_0" pos="93.50" period="900.00" file="../../loop-output.xml"/>
    <inductionLoop id="gruwstr_1" lane="152952349#6_1" pos="93.50" period="900.00" file="../../loop-output.xml"/>
</additional>
